Ag
 OpenBabel06272416043D

 79207  0  0  0  0  0  0  0  0999 V2000
    7.6603    1.5321    5.6176 Ag  0  0  0  0  0  0  0  0  0  0  0  0
    7.6603    5.6176    1.5321 Ag  0  0  0  0  0  0  0  0  0  0  0  0
    5.6176    7.6603    1.5321 Ag  0  0  0  0  0  0  0  0  0  0  0  0
    1.5321    7.6603    5.6176 Ag  0  0  0  0  0  0  0  0  0  0  0  0
    1.5321    5.6176    7.6603 Ag  0  0  0  0  0  0  0  0  0  0  0  0
    5.6176    1.5321    7.6603 Ag  0  0  0  0  0  0  0  0  0  0  0  0
    7.6603    1.5321    9.7031 Ag  0  0  0  0  0  0  0  0  0  0  0  0
    7.6603    9.7031    1.5321 Ag  0  0  0  0  0  0  0  0  0  0  0  0
    1.5321    7.6603    9.7031 Ag  0  0  0  0  0  0  0  0  0  0  0  0
    9.7031    7.6603    1.5321 Ag  0  0  0  0  0  0  0  0  0  0  0  0
    1.5321    9.7031    7.6603 Ag  0  0  0  0  0  0  0  0  0  0  0  0
    9.7031    1.5321    7.6603 Ag  0  0  0  0  0  0  0  0  0  0  0  0
    3.5748    5.6176    5.6176 Ag  0  0  1  0  0  0  0  0  0  0  0  0
   11.7458    5.6176    5.6176 Ag  0  0  0  0  0  0  0  0  0  0  0  0
    5.6176    3.5748    5.6176 Ag  0  0  2  0  0  0  0  0  0  0  0  0
    5.6176   11.7458    5.6176 Ag  0  0  0  0  0  0  0  0  0  0  0  0
    5.6176    5.6176    3.5748 Ag  0  0  1  0  0  0  0  0  0  0  0  0
    5.6176    5.6176   11.7458 Ag  0  0  0  0  0  0  0  0  0  0  0  0
    3.5748    3.5748    7.6603 Ag  0  0  1  0  0  0  0  0  0  0  0  0
   11.7458   11.7458    7.6603 Ag  0  0  0  0  0  0  0  0  0  0  0  0
   11.7458    3.5748    7.6603 Ag  0  0  0  0  0  0  0  0  0  0  0  0
    3.5748   11.7458    7.6603 Ag  0  0  0  0  0  0  0  0  0  0  0  0
    7.6603    3.5748    3.5748 Ag  0  0  1  0  0  0  0  0  0  0  0  0
    7.6603   11.7458   11.7458 Ag  0  0  0  0  0  0  0  0  0  0  0  0
    7.6603   11.7458    3.5748 Ag  0  0  1  0  0  0  0  0  0  0  0  0
    7.6603    3.5748   11.7458 Ag  0  0  2  0  0  0  0  0  0  0  0  0
    3.5748    7.6603    3.5748 Ag  0  0  1  0  0  0  0  0  0  0  0  0
   11.7458    7.6603   11.7458 Ag  0  0  0  0  0  0  0  0  0  0  0  0
    3.5748    7.6603   11.7458 Ag  0  0  0  0  0  0  0  0  0  0  0  0
   11.7458    7.6603    3.5748 Ag  0  0  2  0  0  0  0  0  0  0  0  0
    3.5748    5.6176    9.7031 Ag  0  0  1  0  0  0  0  0  0  0  0  0
   11.7458    5.6176    9.7031 Ag  0  0  0  0  0  0  0  0  0  0  0  0
    7.6603    5.6176    5.6176 Ag  0  0  0  0  0  0  0  0  0  0  0  0
    7.6603   13.7886    5.6176 Ag  0  0  0  0  0  0  0  0  0  0  0  0
    7.6603    5.6176   13.7886 Ag  0  0  0  0  0  0  0  0  0  0  0  0
    3.5748    9.7031    5.6176 Ag  0  0  0  0  0  0  0  0  0  0  0  0
   11.7458    9.7031    5.6176 Ag  0  0  1  0  0  0  0  0  0  0  0  0
    5.6176    3.5748    9.7031 Ag  0  0  2  0  0  0  0  0  0  0  0  0
    5.6176   11.7458    9.7031 Ag  0  0  0  0  0  0  0  0  0  0  0  0
    9.7031    3.5748    5.6176 Ag  0  0  2  0  0  0  0  0  0  0  0  0
    9.7031   11.7458    5.6176 Ag  0  0  2  0  0  0  0  0  0  0  0  0
    5.6176    7.6603    5.6176 Ag  0  0  0  0  0  0  0  0  0  0  0  0
    5.6176    7.6603   13.7886 Ag  0  0  0  0  0  0  0  0  0  0  0  0
   13.7886    7.6603    5.6176 Ag  0  0  0  0  0  0  0  0  0  0  0  0
    5.6176    5.6176    7.6603 Ag  0  0  0  0  0  0  0  0  0  0  0  0
   13.7886    5.6176    7.6603 Ag  0  0  0  0  0  0  0  0  0  0  0  0
    5.6176   13.7886    7.6603 Ag  0  0  0  0  0  0  0  0  0  0  0  0
    9.7031    5.6176    3.5748 Ag  0  0  0  0  0  0  0  0  0  0  0  0
    9.7031    5.6176   11.7458 Ag  0  0  1  0  0  0  0  0  0  0  0  0
    5.6176    9.7031    3.5748 Ag  0  0  0  0  0  0  0  0  0  0  0  0
    5.6176    9.7031   11.7458 Ag  0  0  0  0  0  0  0  0  0  0  0  0
    3.5748    7.6603    7.6603 Ag  0  0  0  0  0  0  0  0  0  0  0  0
   11.7458    7.6603    7.6603 Ag  0  0  0  0  0  0  0  0  0  0  0  0
    7.6603    3.5748    7.6603 Ag  0  0  0  0  0  0  0  0  0  0  0  0
    7.6603   11.7458    7.6603 Ag  0  0  0  0  0  0  0  0  0  0  0  0
    7.6603    7.6603    3.5748 Ag  0  0  0  0  0  0  0  0  0  0  0  0
    7.6603    7.6603   11.7458 Ag  0  0  0  0  0  0  0  0  0  0  0  0
    3.5748    9.7031    9.7031 Ag  0  0  2  0  0  0  0  0  0  0  0  0
   11.7458    9.7031    9.7031 Ag  0  0  2  0  0  0  0  0  0  0  0  0
    7.6603    5.6176    9.7031 Ag  0  0  0  0  0  0  0  0  0  0  0  0
    7.6603   13.7886    9.7031 Ag  0  0  0  0  0  0  0  0  0  0  0  0
    7.6603    9.7031    5.6176 Ag  0  0  0  0  0  0  0  0  0  0  0  0
    7.6603    9.7031   13.7886 Ag  0  0  0  0  0  0  0  0  0  0  0  0
    5.6176    7.6603    9.7031 Ag  0  0  0  0  0  0  0  0  0  0  0  0
   13.7886    7.6603    9.7031 Ag  0  0  0  0  0  0  0  0  0  0  0  0
    9.7031    3.5748    9.7031 Ag  0  0  1  0  0  0  0  0  0  0  0  0
    9.7031   11.7458    9.7031 Ag  0  0  1  0  0  0  0  0  0  0  0  0
    9.7031    7.6603    5.6176 Ag  0  0  0  0  0  0  0  0  0  0  0  0
    9.7031    7.6603   13.7886 Ag  0  0  0  0  0  0  0  0  0  0  0  0
    5.6176    9.7031    7.6603 Ag  0  0  0  0  0  0  0  0  0  0  0  0
   13.7886    9.7031    7.6603 Ag  0  0  0  0  0  0  0  0  0  0  0  0
    9.7031    5.6176    7.6603 Ag  0  0  0  0  0  0  0  0  0  0  0  0
    9.7031   13.7886    7.6603 Ag  0  0  0  0  0  0  0  0  0  0  0  0
    9.7031    9.7031    3.5748 Ag  0  0  1  0  0  0  0  0  0  0  0  0
    9.7031    9.7031   11.7458 Ag  0  0  2  0  0  0  0  0  0  0  0  0
    7.6603    7.6603    7.6603 Ag  0  0  0  0  0  0  0  0  0  0  0  0
    7.6603    9.7031    9.7031 Ag  0  0  0  0  0  0  0  0  0  0  0  0
    9.7031    7.6603    9.7031 Ag  0  0  0  0  0  0  0  0  0  0  0  0
    9.7031    9.7031    7.6603 Ag  0  0  0  0  0  0  0  0  0  0  0  0
  1 15  1  0  0  0  0
  1  6  1  0  0  0  0
  1 12  1  0  0  0  0
  1 54  1  0  0  0  0
  2  3  1  0  0  0  0
  2 48  1  0  0  0  0
  2 17  1  0  0  0  0
  2 23  1  0  0  0  0
  2 56  1  0  0  0  0
  3  8  1  0  0  0  0
  3 17  1  0  0  0  0
  3 27  1  0  0  0  0
  3 56  1  0  0  0  0
  3 50  1  0  0  0  0
  4 13  1  0  0  0  0
  4 36  1  0  0  0  0
  4  5  1  0  0  0  0
  4 11  1  0  0  0  0
  4 52  1  0  0  0  0
  5 19  1  0  0  0  0
  5 52  1  0  0  0  0
  5  9  1  0  0  0  0
  5 31  1  0  0  0  0
  6 19  1  0  0  0  0
  6 54  1  0  0  0  0
  6  7  1  0  0  0  0
  6 38  1  0  0  0  0
  7 38  1  0  0  0  0
  7 66  1  0  0  0  0
  7 26  1  0  0  0  0
  8 74  1  0  0  0  0
  8 25  1  0  0  0  0
  8 56  1  0  0  0  0
  8 50  1  0  0  0  0
  9 58  1  0  0  0  0
  9 31  1  0  0  0  0
  9 29  1  0  0  0  0
 10  2  1  0  0  0  0
 10  8  1  0  0  0  0
 10 30  1  0  0  0  0
 10 48  1  0  0  0  0
 10 74  1  0  0  0  0
 11 22  1  0  0  0  0
 11 52  1  0  0  0  0
 11  9  1  0  0  0  0
 11 58  1  0  0  0  0
 12 21  1  0  0  0  0
 12 54  1  0  0  0  0
 12  7  1  0  0  0  0
 12 66  1  0  0  0  0
 13  5  1  0  0  0  0
 13 19  1  0  0  0  0
 13 52  1  0  0  0  0
 14 68  1  0  0  0  0
 14 21  1  0  0  0  0
 14 46  1  0  0  0  0
 14 53  1  0  0  0  0
 14 72  1  0  0  0  0
 15  6  1  0  0  0  0
 15 19  1  0  0  0  0
 15 54  1  0  0  0  0
 16 62  1  0  0  0  0
 16 22  1  0  0  0  0
 16 47  1  0  0  0  0
 16 55  1  0  0  0  0
 16 70  1  0  0  0  0
 17 27  1  0  0  0  0
 17 56  1  0  0  0  0
 18 43  1  0  0  0  0
 18 35  1  0  0  0  0
 20 71  1  0  0  0  0
 20 59  1  0  0  0  0
 20 67  1  0  0  0  0
 21 46  1  0  0  0  0
 21 66  1  0  0  0  0
 22 47  1  0  0  0  0
 22 58  1  0  0  0  0
 23 40  1  0  0  0  0
 23  1  1  0  0  0  0
 24 51  1  0  0  0  0
 24 75  1  0  0  0  0
 24 63  1  0  0  0  0
 25 50  1  0  0  0  0
 25 34  1  0  0  0  0
 26 35  1  0  0  0  0
 27 50  1  0  0  0  0
 27  4  1  0  0  0  0
 28 49  1  0  0  0  0
 28 75  1  0  0  0  0
 28 69  1  0  0  0  0
 29 18  1  0  0  0  0
 29 43  1  0  0  0  0
 30 48  1  0  0  0  0
 30 74  1  0  0  0  0
 30 44  1  0  0  0  0
 31 29  1  0  0  0  0
 32 65  1  0  0  0  0
 32 78  1  0  0  0  0
 32 28  1  0  0  0  0
 33 42  1  0  0  0  0
 33 68  1  0  0  0  0
 33 76  1  0  0  0  0
 33 45  1  0  0  0  0
 33 72  1  0  0  0  0
 34 16  1  0  0  0  0
 34 41  1  0  0  0  0
 34 73  1  0  0  0  0
 34 47  1  0  0  0  0
 34 55  1  0  0  0  0
 36 11  1  0  0  0  0
 36 22  1  0  0  0  0
 37 20  1  0  0  0  0
 37 79  1  0  0  0  0
 37 71  1  0  0  0  0
 38 26  1  0  0  0  0
 39 77  1  0  0  0  0
 39 61  1  0  0  0  0
 39 24  1  0  0  0  0
 40  1  1  0  0  0  0
 40 12  1  0  0  0  0
 40 21  1  0  0  0  0
 41 73  1  0  0  0  0
 41 20  1  0  0  0  0
 41 79  1  0  0  0  0
 42 62  1  0  0  0  0
 42 76  1  0  0  0  0
 42 45  1  0  0  0  0
 42 70  1  0  0  0  0
 43 63  1  0  0  0  0
 43 35  1  0  0  0  0
 44 14  1  0  0  0  0
 44 37  1  0  0  0  0
 44 46  1  0  0  0  0
 44 53  1  0  0  0  0
 44 71  1  0  0  0  0
 45 60  1  0  0  0  0
 45 64  1  0  0  0  0
 46 53  1  0  0  0  0
 46 32  1  0  0  0  0
 46 65  1  0  0  0  0
 47 55  1  0  0  0  0
 47 39  1  0  0  0  0
 47 61  1  0  0  0  0
 48 23  1  0  0  0  0
 48 56  1  0  0  0  0
 49 69  1  0  0  0  0
 49 35  1  0  0  0  0
 51 43  1  0  0  0  0
 51 63  1  0  0  0  0
 52  9  1  0  0  0  0
 52 31  1  0  0  0  0
 53 71  1  0  0  0  0
 53 32  1  0  0  0  0
 53 65  1  0  0  0  0
 54  7  1  0  0  0  0
 54 38  1  0  0  0  0
 55 39  1  0  0  0  0
 55 61  1  0  0  0  0
 56 50  1  0  0  0  0
 57 51  1  0  0  0  0
 57 18  1  0  0  0  0
 57 43  1  0  0  0  0
 57 63  1  0  0  0  0
 57 69  1  0  0  0  0
 57 35  1  0  0  0  0
 58 29  1  0  0  0  0
 59 65  1  0  0  0  0
 59 28  1  0  0  0  0
 60 64  1  0  0  0  0
 60 78  1  0  0  0  0
 60 18  1  0  0  0  0
 61 24  1  0  0  0  0
 62 79  1  0  0  0  0
 62 70  1  0  0  0  0
 63 69  1  0  0  0  0
 64 77  1  0  0  0  0
 64 18  1  0  0  0  0
 65 28  1  0  0  0  0
 66 26  1  0  0  0  0
 67 61  1  0  0  0  0
 67 24  1  0  0  0  0
 68 62  1  0  0  0  0
 68 79  1  0  0  0  0
 68 72  1  0  0  0  0
 69 35  1  0  0  0  0
 70 64  1  0  0  0  0
 70 77  1  0  0  0  0
 71 59  1  0  0  0  0
 71 65  1  0  0  0  0
 72 60  1  0  0  0  0
 72 78  1  0  0  0  0
 73 20  1  0  0  0  0
 73 55  1  0  0  0  0
 73 67  1  0  0  0  0
 73 61  1  0  0  0  0
 74 25  1  0  0  0  0
 75 63  1  0  0  0  0
 75 69  1  0  0  0  0
 76 45  1  0  0  0  0
 76 72  1  0  0  0  0
 76 60  1  0  0  0  0
 76 64  1  0  0  0  0
 77 78  1  0  0  0  0
 77 51  1  0  0  0  0
 78 49  1  0  0  0  0
 79 77  1  0  0  0  0
 79 78  1  0  0  0  0
M  END
$$$$
