O2 Ti
 OpenBabel07032419453D

123148  0  0  0  0  0  0  0  0999 V2000
    5.1287    5.1287    2.3088 Ti  0  0  2  0  0  0  0  0  0  0  0  0
    5.1287    3.2637    4.6513 Ti  0  0  2  0  0  0  0  0  0  0  0  0
    5.1287   10.7237    4.6513 Ti  0  0  1  0  0  0  0  0  0  0  0  0
    3.2637    3.2637    6.9938 Ti  0  0  0  0  0  0  0  0  0  0  0  0
    3.2637   10.7237    6.9938 Ti  0  0  0  0  0  0  0  0  0  0  0  0
   10.7237    3.2637    6.9938 Ti  0  0  0  0  0  0  0  0  0  0  0  0
   10.7237   10.7237    6.9938 Ti  0  0  0  0  0  0  0  0  0  0  0  0
    5.1287    5.1287   11.6788 Ti  0  0  1  0  0  0  0  0  0  0  0  0
    3.2637    5.1287    9.3363 Ti  0  0  1  0  0  0  0  0  0  0  0  0
   10.7237    5.1287    9.3363 Ti  0  0  2  0  0  0  0  0  0  0  0  0
    5.1287    8.8587    2.3088 Ti  0  0  0  0  0  0  0  0  0  0  0  0
    8.8587    3.2637    4.6513 Ti  0  0  0  0  0  0  0  0  0  0  0  0
    8.8587   10.7237    4.6513 Ti  0  0  0  0  0  0  0  0  0  0  0  0
    5.1287    6.9937    4.6513 Ti  0  0  2  0  0  0  0  0  0  0  0  0
    8.8587    5.1287    2.3088 Ti  0  0  2  0  0  0  0  0  0  0  0  0
    3.2637    6.9937    6.9938 Ti  0  0  0  0  0  0  0  0  0  0  0  0
   10.7237    6.9937    6.9938 Ti  0  0  0  0  0  0  0  0  0  0  0  0
    5.1287    8.8587   11.6788 Ti  0  0  1  0  0  0  0  0  0  0  0  0
    6.9937    5.1287    9.3363 Ti  0  0  0  0  0  0  0  0  0  0  0  0
    3.2637    8.8587    9.3363 Ti  0  0  0  0  0  0  0  0  0  0  0  0
   10.7237    8.8587    9.3363 Ti  0  0  0  0  0  0  0  0  0  0  0  0
    8.8587    5.1287   11.6788 Ti  0  0  0  0  0  0  0  0  0  0  0  0
    6.9937    3.2637    6.9938 Ti  0  0  0  0  0  0  0  0  0  0  0  0
    6.9937   10.7237    6.9938 Ti  0  0  0  0  0  0  0  0  0  0  0  0
    8.8587    8.8587    2.3088 Ti  0  0  0  0  0  0  0  0  0  0  0  0
    8.8587    6.9937    4.6513 Ti  0  0  0  0  0  0  0  0  0  0  0  0
    6.9937    6.9937    6.9938 Ti  0  0  0  0  0  0  0  0  0  0  0  0
    8.8587    8.8587   11.6788 Ti  0  0  0  0  0  0  0  0  0  0  0  0
    6.9937    8.8587    9.3363 Ti  0  0  0  0  0  0  0  0  0  0  0  0
    1.3987    6.9937    4.6513 Ti  0  0  0  0  0  0  0  0  0  0  0  0
    6.9937    1.3987    9.3363 Ti  0  0  0  0  0  0  0  0  0  0  0  0
    6.9937   12.5887    9.3363 Ti  0  0  0  0  0  0  0  0  0  0  0  0
   12.5887    6.9937    4.6513 Ti  0  0  0  0  0  0  0  0  0  0  0  0
    5.1287    5.1287    4.1828 O   0  0  0  0  0  0  0  0  0  0  0  0
    3.2637    5.1287    1.8403 O   0  0  0  0  0  1  0  0  0  0  0  0
   10.7237    5.1287    1.8403 O   0  0  0  0  0  1  0  0  0  0  0  0
    5.1287    3.2637    6.5253 O   0  0  0  0  0  0  0  0  0  0  0  0
    5.1287   10.7237    6.5253 O   0  0  0  0  0  0  0  0  0  0  0  0
    5.1287    3.2637    2.7773 O   0  0  0  0  0  0  0  0  0  0  0  0
    5.1287   10.7237    2.7773 O   0  0  0  0  0  0  0  0  0  0  0  0
    3.2637    3.2637    8.8678 O   0  0  0  0  0  0  0  0  0  0  0  0
    3.2637   10.7237    8.8678 O   0  0  0  0  0  0  0  0  0  0  0  0
   10.7237    3.2637    8.8678 O   0  0  0  0  0  0  0  0  0  0  0  0
   10.7237   10.7237    8.8678 O   0  0  0  0  0  0  0  0  0  0  0  0
    3.2637    5.1287   11.2103 O   0  0  0  0  0  0  0  0  0  0  0  0
   10.7237    5.1287   11.2103 O   0  0  0  0  0  0  0  0  0  0  0  0
    5.1287    3.2637   12.1472 O   0  0  0  0  0  1  0  0  0  0  0  0
    5.1287   10.7237   12.1472 O   0  0  0  0  0  1  0  0  0  0  0  0
    3.2637    5.1287    7.4623 O   0  0  0  0  0  0  0  0  0  0  0  0
   10.7237    5.1287    7.4623 O   0  0  0  0  0  0  0  0  0  0  0  0
    5.1287    5.1287    9.8047 O   0  0  0  0  0  0  0  0  0  0  0  0
    3.2637    3.2637    5.1198 O   0  0  0  0  0  0  0  0  0  0  0  0
    3.2637   10.7237    5.1198 O   0  0  0  0  0  0  0  0  0  0  0  0
   10.7237    3.2637    5.1198 O   0  0  0  0  0  0  0  0  0  0  0  0
   10.7237   10.7237    5.1198 O   0  0  0  0  0  0  0  0  0  0  0  0
    5.1287    8.8587    4.1828 O   0  0  0  0  0  0  0  0  0  0  0  0
    6.9937    5.1287    1.8403 O   0  0  0  0  0  0  0  0  0  0  0  0
    8.8587    3.2637    6.5253 O   0  0  0  0  0  0  0  0  0  0  0  0
    8.8587   10.7237    6.5253 O   0  0  0  0  0  0  0  0  0  0  0  0
    5.1287    6.9937    2.7773 O   0  0  0  0  0  0  0  0  0  0  0  0
    3.2637    6.9937    8.8678 O   0  0  0  0  0  0  0  0  0  0  0  0
   10.7237    6.9937    8.8678 O   0  0  0  0  0  0  0  0  0  0  0  0
    6.9937    5.1287   11.2103 O   0  0  0  0  0  0  0  0  0  0  0  0
    5.1287    6.9937   12.1472 O   0  0  0  0  0  0  0  0  0  0  0  0
    3.2637    8.8587    7.4623 O   0  0  0  0  0  0  0  0  0  0  0  0
   10.7237    8.8587    7.4623 O   0  0  0  0  0  0  0  0  0  0  0  0
    8.8587    5.1287    9.8047 O   0  0  0  0  0  0  0  0  0  0  0  0
    6.9937    3.2637    5.1198 O   0  0  0  0  0  0  0  0  0  0  0  0
    6.9937   10.7237    5.1198 O   0  0  0  0  0  0  0  0  0  0  0  0
    8.8587    5.1287    4.1828 O   0  0  0  0  0  0  0  0  0  0  0  0
    3.2637    8.8587    1.8403 O   0  0  0  0  0  1  0  0  0  0  0  0
   10.7237    8.8587    1.8403 O   0  0  0  0  0  1  0  0  0  0  0  0
    5.1287    6.9937    6.5253 O   0  0  0  0  0  0  0  0  0  0  0  0
    8.8587    3.2637    2.7773 O   0  0  0  0  0  0  0  0  0  0  0  0
    8.8587   10.7237    2.7773 O   0  0  0  0  0  0  0  0  0  0  0  0
    6.9937    3.2637    8.8678 O   0  0  0  0  0  0  0  0  0  0  0  0
    6.9937   10.7237    8.8678 O   0  0  0  0  0  0  0  0  0  0  0  0
    3.2637    8.8587   11.2103 O   0  0  0  0  0  0  0  0  0  0  0  0
   10.7237    8.8587   11.2103 O   0  0  0  0  0  0  0  0  0  0  0  0
    8.8587    3.2637   12.1472 O   0  0  0  0  0  1  0  0  0  0  0  0
    8.8587   10.7237   12.1472 O   0  0  0  0  0  1  0  0  0  0  0  0
    6.9937    5.1287    7.4623 O   0  0  0  0  0  0  0  0  0  0  0  0
    5.1287    8.8587    9.8047 O   0  0  0  0  0  0  0  0  0  0  0  0
    3.2637    6.9937    5.1198 O   0  0  0  0  0  0  0  0  0  0  0  0
   10.7237    6.9937    5.1198 O   0  0  0  0  0  0  0  0  0  0  0  0
    8.8587    8.8587    4.1828 O   0  0  0  0  0  0  0  0  0  0  0  0
    6.9937    8.8587    1.8403 O   0  0  0  0  0  0  0  0  0  0  0  0
    8.8587    6.9937    6.5253 O   0  0  0  0  0  0  0  0  0  0  0  0
    8.8587    6.9937    2.7773 O   0  0  0  0  0  0  0  0  0  0  0  0
    6.9937    6.9937    8.8678 O   0  0  0  0  0  0  0  0  0  0  0  0
    6.9937    8.8587   11.2103 O   0  0  0  0  0  0  0  0  0  0  0  0
    8.8587    6.9937   12.1472 O   0  0  0  0  0  0  0  0  0  0  0  0
    6.9937    8.8587    7.4623 O   0  0  0  0  0  0  0  0  0  0  0  0
    8.8587    8.8587    9.8047 O   0  0  0  0  0  0  0  0  0  0  0  0
    6.9937    6.9937    5.1198 O   0  0  0  0  0  0  0  0  0  0  0  0
    1.3987    3.2637    6.5253 O   0  0  0  0  0  1  0  0  0  0  0  0
    1.3987    5.1287    4.1828 O   0  0  0  0  0  1  0  0  0  0  0  0
    1.3987    5.1287    9.8047 O   0  0  0  0  0  1  0  0  0  0  0  0
    1.3987    6.9937    6.5253 O   0  0  0  0  0  0  0  0  0  0  0  0
    1.3987    8.8587    4.1828 O   0  0  0  0  0  1  0  0  0  0  0  0
    1.3987    8.8587    9.8047 O   0  0  0  0  0  1  0  0  0  0  0  0
    1.3987   10.7237    6.5253 O   0  0  0  0  0  1  0  0  0  0  0  0
    5.1287    1.3987    4.1828 O   0  0  0  0  0  1  0  0  0  0  0  0
    3.2637    1.3987    7.4623 O   0  0  0  0  0  1  0  0  0  0  0  0
    5.1287    1.3987    9.8047 O   0  0  0  0  0  1  0  0  0  0  0  0
    5.1287   12.5887    4.1828 O   0  0  0  0  0  1  0  0  0  0  0  0
    3.2637   12.5887    7.4623 O   0  0  0  0  0  1  0  0  0  0  0  0
    5.1287   12.5887    9.8047 O   0  0  0  0  0  1  0  0  0  0  0  0
    6.9937    1.3987    7.4623 O   0  0  0  0  0  0  0  0  0  0  0  0
    6.9937   12.5887    7.4623 O   0  0  0  0  0  0  0  0  0  0  0  0
    8.8587    1.3987    4.1828 O   0  0  0  0  0  1  0  0  0  0  0  0
    8.8587    1.3987    9.8047 O   0  0  0  0  0  0  0  0  0  0  0  0
    8.8587   12.5887    4.1828 O   0  0  0  0  0  1  0  0  0  0  0  0
    8.8587   12.5887    9.8047 O   0  0  0  0  0  0  0  0  0  0  0  0
   10.7237    1.3987    7.4623 O   0  0  0  0  0  1  0  0  0  0  0  0
   12.5887    3.2637    6.5253 O   0  0  0  0  0  1  0  0  0  0  0  0
   12.5887    5.1287    4.1828 O   0  0  0  0  0  1  0  0  0  0  0  0
   12.5887    5.1287    9.8047 O   0  0  0  0  0  1  0  0  0  0  0  0
   12.5887    6.9937    6.5253 O   0  0  0  0  0  0  0  0  0  0  0  0
   12.5887    8.8587    4.1828 O   0  0  0  0  0  0  0  0  0  0  0  0
   12.5887    8.8587    9.8047 O   0  0  0  0  0  1  0  0  0  0  0  0
   12.5887   10.7237    6.5253 O   0  0  0  0  0  1  0  0  0  0  0  0
   10.7237   12.5887    7.4623 O   0  0  0  0  0  1  0  0  0  0  0  0
  1 35  1  6  0  0  0
  1 39  1  0  0  0  0
  1 34  1  0  0  0  0
  2103  1  1  0  0  0
  2 52  1  0  0  0  0
  2 37  1  0  0  0  0
  3106  1  1  0  0  0
  3 53  1  0  0  0  0
  3 38  1  0  0  0  0
  4104  1  0  0  0  0
  4 41  1  0  0  0  0
  5107  1  0  0  0  0
  5 42  1  0  0  0  0
  6115  1  0  0  0  0
  6 43  1  0  0  0  0
  7123  1  0  0  0  0
  7 44  1  0  0  0  0
  8 64  1  0  0  0  0
  8 47  1  1  0  0  0
  9 98  1  1  0  0  0
  9 45  1  0  0  0  0
 10118  1  1  0  0  0
 10 46  1  0  0  0  0
 11 60  1  0  0  0  0
 11 40  1  0  0  0  0
 11 56  1  0  0  0  0
 12 68  1  0  0  0  0
 12 54  1  0  0  0  0
 12 58  1  0  0  0  0
 13 69  1  0  0  0  0
 13 55  1  0  0  0  0
 13 59  1  0  0  0  0
 14 60  1  1  0  0  0
 14 73  1  0  0  0  0
 15 36  1  6  0  0  0
 15 74  1  0  0  0  0
 15 70  1  0  0  0  0
 16 49  1  0  0  0  0
 16 65  1  0  0  0  0
 16 61  1  0  0  0  0
 17 50  1  0  0  0  0
 17 66  1  0  0  0  0
 17 62  1  0  0  0  0
 18 48  1  1  0  0  0
 18 64  1  0  0  0  0
 19 67  1  0  0  0  0
 19 51  1  0  0  0  0
 19 63  1  0  0  0  0
 20101  1  0  0  0  0
 20 78  1  0  0  0  0
 21121  1  0  0  0  0
 21 79  1  0  0  0  0
 22 80  1  0  0  0  0
 22 92  1  0  0  0  0
 23109  1  0  0  0  0
 23 76  1  0  0  0  0
 24110  1  0  0  0  0
 24 77  1  0  0  0  0
 25 89  1  0  0  0  0
 25 75  1  0  0  0  0
 25 86  1  0  0  0  0
 26 85  1  0  0  0  0
 26 95  1  0  0  0  0
 26 88  1  0  0  0  0
 27 82  1  0  0  0  0
 27 93  1  0  0  0  0
 27 90  1  0  0  0  0
 28 81  1  0  0  0  0
 28 92  1  0  0  0  0
 29 83  1  0  0  0  0
 29 94  1  0  0  0  0
 29 91  1  0  0  0  0
 30 84  1  0  0  0  0
 30 99  1  0  0  0  0
 31105  1  0  0  0  0
 31112  2  0  0  0  0
 32108  1  0  0  0  0
 32114  2  0  0  0  0
 33119  1  0  0  0  0
 34 14  1  0  0  0  0
 37 23  1  0  0  0  0
 38 24  1  0  0  0  0
 39  2  1  0  0  0  0
 40  3  1  0  0  0  0
 41  9  1  0  0  0  0
 42 20  1  0  0  0  0
 43 10  1  0  0  0  0
 44 21  1  0  0  0  0
 45  8  1  0  0  0  0
 46 22  1  0  0  0  0
 49  9  1  0  0  0  0
 50 10  1  0  0  0  0
 51  8  1  0  0  0  0
 52  4  1  0  0  0  0
 53  5  1  0  0  0  0
 54  6  1  0  0  0  0
 55  7  1  0  0  0  0
 56 14  1  0  0  0  0
 57  1  1  0  0  0  0
 57 15  1  0  0  0  0
 58 23  1  0  0  0  0
 59 24  1  0  0  0  0
 61 20  1  0  0  0  0
 62 21  1  0  0  0  0
 63 22  1  0  0  0  0
 65 20  1  0  0  0  0
 66 21  1  0  0  0  0
 67 22  1  0  0  0  0
 68 23  1  0  0  0  0
 69 24  1  0  0  0  0
 70 26  1  0  0  0  0
 71 11  1  0  0  0  0
 72 25  1  0  0  0  0
 73 27  1  0  0  0  0
 74 12  1  0  0  0  0
 75 13  1  0  0  0  0
 76 19  1  0  0  0  0
 77 29  1  0  0  0  0
 78 18  1  0  0  0  0
 79 28  1  0  0  0  0
 82 19  1  0  0  0  0
 83 18  1  0  0  0  0
 84 16  1  0  0  0  0
 85 17  1  0  0  0  0
 86 26  1  0  0  0  0
 87 11  1  0  0  0  0
 87 25  1  0  0  0  0
 88 27  1  0  0  0  0
 89 26  1  0  0  0  0
 90 29  1  0  0  0  0
 91 28  1  0  0  0  0
 93 29  1  0  0  0  0
 94 28  1  0  0  0  0
 95 27  1  0  0  0  0
 96  4  1  0  0  0  0
 97 30  1  0  0  0  0
 99 16  1  0  0  0  0
100 30  1  0  0  0  0
102  5  1  0  0  0  0
109 31  1  0  0  0  0
110 32  1  0  0  0  0
111 12  1  0  0  0  0
113 13  1  0  0  0  0
116  6  1  0  0  0  0
117 33  1  0  0  0  0
119 17  1  0  0  0  0
120 33  2  0  0  0  0
122  7  1  0  0  0  0
M  END
$$$$
