O Zn
 OpenBabel06272416523D

113115  0  0  0  0  0  0  0  0999 V2000
   11.2700   13.1624    8.7000 Zn  0  0  0  0  0  0  0  0  0  0  0  0
    4.8300    2.0080    8.7000 Zn  0  0  0  0  0  0  0  0  0  0  0  0
    6.4400    4.7966    3.5000 Zn  0  0  0  0  0  0  0  0  0  0  0  0
    9.6600   10.3738    3.5000 Zn  0  0  0  0  0  0  0  0  0  0  0  0
    8.0500   11.3034    6.1000 Zn  0  0  0  0  0  0  0  0  0  0  0  0
   12.8800   10.3738    8.7000 Zn  0  0  0  0  0  0  0  0  0  0  0  0
    6.4400    4.7966    8.7000 Zn  0  0  0  0  0  0  0  0  0  0  0  0
    4.8300    5.7262    6.1000 Zn  0  0  0  0  0  0  0  0  0  0  0  0
    8.0500    2.0080    8.7000 Zn  0  0  0  0  0  0  0  0  0  0  0  0
    9.6600   10.3738    8.7000 Zn  0  0  0  0  0  0  0  0  0  0  0  0
    8.0500   11.3034   11.3000 Zn  0  0  0  0  0  0  0  0  0  0  0  0
    4.8300    5.7262   11.3000 Zn  0  0  0  0  0  0  0  0  0  0  0  0
    8.0500    7.5852    3.5000 Zn  0  0  0  0  0  0  0  0  0  0  0  0
    6.4400    8.5148    6.1000 Zn  0  0  0  0  0  0  0  0  0  0  0  0
   14.4900    7.5852    8.7000 Zn  0  0  0  0  0  0  0  0  0  0  0  0
    8.0500    7.5852    8.7000 Zn  0  0  0  0  0  0  0  0  0  0  0  0
   11.2700    2.0080    8.7000 Zn  0  0  0  0  0  0  0  0  0  0  0  0
    6.4400    8.5148   11.3000 Zn  0  0  0  0  0  0  0  0  0  0  0  0
    6.4400    2.9376    6.1000 Zn  0  0  0  0  0  0  0  0  0  0  0  0
   11.2700   11.3034    6.1000 Zn  0  0  0  0  0  0  0  0  0  0  0  0
    8.0500   13.1624    8.7000 Zn  0  0  0  0  0  0  0  0  0  0  0  0
    3.2200    4.7966    8.7000 Zn  0  0  0  0  0  0  0  0  0  0  0  0
    6.4400    2.9376   11.3000 Zn  0  0  0  0  0  0  0  0  0  0  0  0
   11.2700   11.3034   11.3000 Zn  0  0  0  0  0  0  0  0  0  0  0  0
    9.6600    4.7966    3.5000 Zn  0  0  0  0  0  0  0  0  0  0  0  0
    3.2200    8.5148    6.1000 Zn  0  0  0  0  0  0  0  0  0  0  0  0
    4.8300   11.3034    6.1000 Zn  0  0  0  0  0  0  0  0  0  0  0  0
   11.2700    7.5852    8.7000 Zn  0  0  0  0  0  0  0  0  0  0  0  0
    9.6600    4.7966    8.7000 Zn  0  0  0  0  0  0  0  0  0  0  0  0
   12.8800    4.7966    8.7000 Zn  0  0  0  0  0  0  0  0  0  0  0  0
    3.2200    8.5148   11.3000 Zn  0  0  0  0  0  0  0  0  0  0  0  0
    4.8300   11.3034   11.3000 Zn  0  0  0  0  0  0  0  0  0  0  0  0
    6.4400   10.3738    3.5000 Zn  0  0  0  0  0  0  0  0  0  0  0  0
    9.6600    2.9376    6.1000 Zn  0  0  0  0  0  0  0  0  0  0  0  0
    9.6600    8.5148    6.1000 Zn  0  0  1  0  0  0  0  0  0  0  0  0
    4.8300   13.1624    8.7000 Zn  0  0  0  0  0  0  0  0  0  0  0  0
    4.8300    7.5852    8.7000 Zn  0  0  0  0  0  0  0  0  0  0  0  0
   12.8800    8.5148    6.1000 Zn  0  0  0  0  0  0  0  0  0  0  0  0
    8.0500    5.7262    6.1000 Zn  0  0  0  0  0  0  0  0  0  0  0  0
    1.6100    7.5852    8.7000 Zn  0  0  0  0  0  0  0  0  0  0  0  0
    6.4400   10.3738    8.7000 Zn  0  0  0  0  0  0  0  0  0  0  0  0
    9.6600    2.9376   11.3000 Zn  0  0  0  0  0  0  0  0  0  0  0  0
    9.6600    8.5148   11.3000 Zn  0  0  0  0  0  0  0  0  0  0  0  0
   12.8800    8.5148   11.3000 Zn  0  0  0  0  0  0  0  0  0  0  0  0
    8.0500    5.7262   11.3000 Zn  0  0  0  0  0  0  0  0  0  0  0  0
   11.2700    5.7262    6.1000 Zn  0  0  0  0  0  0  0  0  0  0  0  0
    3.2200   10.3738    8.7000 Zn  0  0  0  0  0  0  0  0  0  0  0  0
   11.2700    5.7262   11.3000 Zn  0  0  0  0  0  0  0  0  0  0  0  0
    3.2200    2.9376    8.0500 O   0  0  0  0  0  0  0  0  0  0  0  0
    9.6600   14.0920    8.0500 O   0  0  0  0  0  0  0  0  0  0  0  0
   11.2700   13.1624   10.6500 O   0  0  0  0  0  0  0  0  0  0  0  0
    4.8300    2.0080   10.6500 O   0  0  0  0  0  0  0  0  0  0  0  0
   12.8800   10.3738    5.4500 O   0  0  0  0  0  0  0  0  0  0  0  0
    6.4400    4.7966    5.4500 O   0  0  0  0  0  0  0  0  0  0  0  0
    8.0500    2.0080    5.4500 O   0  0  0  0  0  0  0  0  0  0  0  0
    9.6600   10.3738    5.4500 O   0  0  0  0  0  0  0  0  0  0  0  0
    1.6100    5.7262    8.0500 O   0  0  0  0  0  0  0  0  0  0  0  0
    8.0500   11.3034    8.0500 O   0  0  0  0  0  0  0  0  0  0  0  0
   12.8800   10.3738   10.6500 O   0  0  0  0  0  0  0  0  0  0  0  0
    6.4400    4.7966   10.6500 O   0  0  0  0  0  0  0  0  0  0  0  0
    6.4400   14.0920    8.0500 O   0  0  0  0  0  0  0  0  0  0  0  0
    4.8300    5.7262    8.0500 O   0  0  0  0  0  0  0  0  0  0  0  0
    8.0500    2.0080   10.6500 O   0  0  0  0  0  0  0  0  0  0  0  0
    9.6600   10.3738   10.6500 O   0  0  0  0  0  0  0  0  0  0  0  0
    8.0500   11.3034   13.2500 O   0  0  0  0  0  1  0  0  0  0  0  0
    4.8300    5.7262   13.2500 O   0  0  0  0  0  1  0  0  0  0  0  0
    6.4400    8.5148    2.8500 O   0  0  0  0  0  0  0  0  0  0  0  0
    8.0500    7.5852    5.4500 O   0  0  0  0  0  0  0  0  0  0  0  0
    6.4400    8.5148    8.0500 O   0  0  0  0  0  0  0  0  0  0  0  0
   14.4900    7.5852   10.6500 O   0  0  0  0  0  0  0  0  0  0  0  0
    8.0500    7.5852   10.6500 O   0  0  0  0  0  0  0  0  0  0  0  0
   11.2700    2.0080   10.6500 O   0  0  0  0  0  0  0  0  0  0  0  0
    6.4400    8.5148   13.2500 O   0  0  0  0  0  1  0  0  0  0  0  0
    8.0500   13.1624    5.4500 O   0  0  0  0  0  1  0  0  0  0  0  0
    3.2200    4.7966    5.4500 O   0  0  0  0  0  1  0  0  0  0  0  0
    6.4400    2.9376    8.0500 O   0  0  0  0  0  0  0  0  0  0  0  0
   11.2700   11.3034    8.0500 O   0  0  0  0  0  0  0  0  0  0  0  0
    8.0500   13.1624   10.6500 O   0  0  0  0  0  0  0  0  0  0  0  0
    3.2200    4.7966   10.6500 O   0  0  0  0  0  0  0  0  0  0  0  0
    6.4400    2.9376   13.2500 O   0  0  0  0  0  1  0  0  0  0  0  0
   11.2700   11.3034   13.2500 O   0  0  0  0  0  1  0  0  0  0  0  0
   11.2700    7.5852    5.4500 O   0  0  0  0  0  0  0  0  0  0  0  0
    9.6600    4.7966    5.4500 O   0  0  0  0  0  0  0  0  0  0  0  0
   12.8800    4.7966    5.4500 O   0  0  0  0  0  1  0  0  0  0  0  0
    3.2200    8.5148    8.0500 O   0  0  0  0  0  0  0  0  0  0  0  0
    4.8300   11.3034    8.0500 O   0  0  0  0  0  0  0  0  0  0  0  0
   11.2700    7.5852   10.6500 O   0  0  0  0  0  0  0  0  0  0  0  0
    9.6600    4.7966   10.6500 O   0  0  0  0  0  0  0  0  0  0  0  0
   12.8800    4.7966   10.6500 O   0  0  0  0  0  0  0  0  0  0  0  0
    3.2200    8.5148   13.2500 O   0  0  0  0  0  1  0  0  0  0  0  0
    4.8300   11.3034   13.2500 O   0  0  0  0  0  1  0  0  0  0  0  0
    9.6600    8.5148    2.8500 O   0  0  0  0  0  0  0  0  0  0  0  0
    4.8300    7.5852    5.4500 O   0  0  0  0  0  0  0  0  0  0  0  0
    8.0500    5.7262    2.8500 O   0  0  0  0  0  0  0  0  0  0  0  0
    6.4400   10.3738    5.4500 O   0  0  0  0  0  0  0  0  0  0  0  0
    9.6600    2.9376    8.0500 O   0  0  0  0  0  0  0  0  0  0  0  0
   14.4900    5.7262    8.0500 O   0  0  0  0  0  0  0  0  0  0  0  0
    9.6600    8.5148    8.0500 O   0  0  0  0  0  0  0  0  0  0  0  0
    4.8300   13.1624   10.6500 O   0  0  0  0  0  0  0  0  0  0  0  0
    4.8300    7.5852   10.6500 O   0  0  0  0  0  0  0  0  0  0  0  0
   12.8800    8.5148    8.0500 O   0  0  0  0  0  0  0  0  0  0  0  0
   12.8800    2.9376    8.0500 O   0  0  0  0  0  0  0  0  0  0  0  0
    8.0500    5.7262    8.0500 O   0  0  0  0  0  0  0  0  0  0  0  0
    1.6100    7.5852   10.6500 O   0  0  0  0  0  0  0  0  0  0  0  0
    6.4400   10.3738   10.6500 O   0  0  0  0  0  0  0  0  0  0  0  0
    9.6600    2.9376   13.2500 O   0  0  0  0  0  1  0  0  0  0  0  0
    9.6600    8.5148   13.2500 O   0  0  0  0  0  1  0  0  0  0  0  0
   12.8800    8.5148   13.2500 O   0  0  0  0  0  1  0  0  0  0  0  0
    8.0500    5.7262   13.2500 O   0  0  0  0  0  1  0  0  0  0  0  0
    3.2200   10.3738    5.4500 O   0  0  0  0  0  0  0  0  0  0  0  0
   11.2700    5.7262    8.0500 O   0  0  0  0  0  0  0  0  0  0  0  0
    3.2200   10.3738   10.6500 O   0  0  0  0  0  0  0  0  0  0  0  0
   11.2700    5.7262   13.2500 O   0  0  0  0  0  1  0  0  0  0  0  0
  1 51  1  0  0  0  0
  2 52  1  0  0  0  0
  3 54  1  0  0  0  0
  4 56  1  0  0  0  0
  5 58  1  0  0  0  0
  6 59  1  0  0  0  0
  7 60  1  0  0  0  0
  8 62  1  0  0  0  0
  9 63  1  0  0  0  0
 10 64  1  0  0  0  0
 11 65  1  0  0  0  0
 12 66  1  0  0  0  0
 13 68  1  0  0  0  0
 14 69  1  0  0  0  0
 15 70  1  0  0  0  0
 16 71  1  0  0  0  0
 17 72  1  0  0  0  0
 18 73  1  0  0  0  0
 19 76  1  0  0  0  0
 20 77  1  0  0  0  0
 21 78  1  0  0  0  0
 22 79  1  0  0  0  0
 23 80  1  0  0  0  0
 24 81  1  0  0  0  0
 25 83  1  0  0  0  0
 26 85  1  0  0  0  0
 27 86  1  0  0  0  0
 28 87  1  0  0  0  0
 29 88  1  0  0  0  0
 30 89  1  0  0  0  0
 31 90  1  0  0  0  0
 32 91  1  0  0  0  0
 33 95  1  0  0  0  0
 34 96  1  0  0  0  0
 35 98  1  1  0  0  0
 36 99  1  0  0  0  0
 37100  1  0  0  0  0
 38101  1  0  0  0  0
 39103  1  0  0  0  0
 40104  1  0  0  0  0
 41105  1  0  0  0  0
 42106  1  0  0  0  0
 43107  1  0  0  0  0
 44108  1  0  0  0  0
 45109  1  0  0  0  0
 46111  1  0  0  0  0
 47112  1  0  0  0  0
 48113  1  0  0  0  0
 49  2  1  0  0  0  0
 49 22  1  0  0  0  0
 50  1  1  0  0  0  0
 50 21  1  0  0  0  0
 51 24  1  0  0  0  0
 52 23  1  0  0  0  0
 53 38  1  0  0  0  0
 53 20  1  0  0  0  0
 54  8  1  0  0  0  0
 55 19  1  0  0  0  0
 55 34  1  0  0  0  0
 56 35  1  0  0  0  0
 57 40  1  0  0  0  0
 57 22  1  0  0  0  0
 58 21  1  0  0  0  0
 59 44  1  0  0  0  0
 60 45  1  0  0  0  0
 61 36  1  0  0  0  0
 61 21  1  0  0  0  0
 62  7  1  0  0  0  0
 63 42  1  0  0  0  0
 64 43  1  0  0  0  0
 67 13  1  0  0  0  0
 67 33  1  0  0  0  0
 68 35  1  0  0  0  0
 69 37  1  0  0  0  0
 70 44  1  0  0  0  0
 71 43  1  0  0  0  0
 72 42  1  0  0  0  0
 74  5  1  0  0  0  0
 75  8  1  0  0  0  0
 76  2  1  0  0  0  0
 77  1  1  0  0  0  0
 78 11  1  0  0  0  0
 79 12  1  0  0  0  0
 82 35  1  0  0  0  0
 82 38  1  0  0  0  0
 83 39  1  0  0  0  0
 84 46  1  0  0  0  0
 85 47  1  0  0  0  0
 86 41  1  0  0  0  0
 87 43  1  0  0  0  0
 88 45  1  0  0  0  0
 89 48  1  0  0  0  0
 92 13  1  0  0  0  0
 92  4  1  0  0  0  0
 93 26  1  0  0  0  0
 93 14  1  0  0  0  0
 94 25  1  0  0  0  0
 94  3  1  0  0  0  0
 95 27  1  0  0  0  0
 96  9  1  0  0  0  0
 97 30  1  0  0  0  0
 97 15  1  0  0  0  0
 98 28  1  0  0  0  0
 99 32  1  0  0  0  0
100 18  1  0  0  0  0
101 15  1  0  0  0  0
102 30  1  0  0  0  0
102 17  1  0  0  0  0
103  7  1  0  0  0  0
104 31  1  0  0  0  0
105 32  1  0  0  0  0
110 26  1  0  0  0  0
110 27  1  0  0  0  0
111 30  1  0  0  0  0
112 31  1  0  0  0  0
M  END
$$$$
